!- Windows Line endings 

Version,
    22.2;                     !- Version Identifier

SimulationControl,
    Yes,                      !- Do Zone Sizing Calculation
    No,                       !- Do System Sizing Calculation
    Yes,                      !- Do Plant Sizing Calculation
    No,                       !- Run Simulation for Sizing Periods
    Yes,                      !- Run Simulation for Weather File Run Periods
    No,                       !- Do HVAC Sizing Simulation for Sizing Periods
    ;                         !- Maximum Number of HVAC Sizing Simulation Passes

Building,
    Building 1,               !- Name
    0,                        !- North Axis
    Suburbs,                  !- Terrain
    ,                         !- Loads Convergence Tolerance Value
    ,                         !- Temperature Convergence Tolerance Value
    FullExteriorWithReflections,    !- Solar Distribution
    ,                         !- Maximum Number of Warmup Days
    ;                         !- Minimum Number of Warmup Days

ShadowCalculation,
    PolygonClipping,          !- Shading Calculation Method
    Periodic,                 !- Shading Calculation Update Frequency Method
    30,                       !- Shading Calculation Update Frequency
    15000,                    !- Maximum Figures in Shadow Overlap Calculations
    SutherlandHodgman,        !- Polygon Clipping Algorithm
    512,                      !- Pixel Counting Resolution
    SimpleSkyDiffuseModeling,    !- Sky Diffuse Modeling Algorithm
    No,                       !- Output External Shading Calculation Results
    No,                       !- Disable SelfShading Within Shading Zone Groups
    No;                       !- Disable SelfShading From Shading Zone Groups to Other Zones

HeatBalanceAlgorithm,
    ConductionTransferFunction,    !- Algorithm
    200;                      !- Surface Temperature Upper Limit

Timestep,
    1;                        !- Number of Timesteps per Hour

Site:Location,
    Site 1,                   !- Name
    0,                        !- Latitude
    0,                        !- Longitude
    0,                        !- Time Zone
    0;                        !- Elevation

SizingPeriod:DesignDay,
    Lake Vyrnvy Cooling Design Day 0.4% Condns DB=>MWB,    !- Name
    8,                        !- Month
    21,                       !- Day of Month
    SummerDesignDay,          !- Day Type
    26.4964,                  !- Maximum DryBulb Temperature
    7.5,                      !- Daily DryBulb Temperature Range
    DefaultMultipliers,       !- DryBulb Temperature Range Modifier Type
    ,                         !- DryBulb Temperature Range Modifier Day Schedule Name
    Wetbulb,                  !- Humidity Condition Type
    17.3,                     !- Wetbulb or DewPoint at Maximum DryBulb
    ,                         !- Humidity Condition Day Schedule Name
    ,                         !- Humidity Ratio at Maximum DryBulb
    ,                         !- Enthalpy at Maximum DryBulb
    ,                         !- Daily WetBulb Temperature Range
    101549,                   !- Barometric Pressure
    3.4,                      !- Wind Speed
    148,                      !- Wind Direction
    No,                       !- Rain Indicator
    No,                       !- Snow Indicator
    No,                       !- Daylight Saving Time Indicator
    ASHRAEClearSky,           !- Solar Model Indicator
    ,                         !- Beam Solar Day Schedule Name
    ,                         !- Diffuse Solar Day Schedule Name
    ,                         !- ASHRAE Clear Sky Optical Depth for Beam Irradiance taub
    ,                         !- ASHRAE Clear Sky Optical Depth for Diffuse Irradiance taud
    1,                        !- Sky Clearness
    ,                         !- Maximum Number Warmup Days
    FullResetAtBeginEnvironment;    !- Begin Environment Reset Mode

SizingPeriod:DesignDay,
    Lake Vyrnvy Heating Design Day 99.6% Condns DB,    !- Name
    12,                       !- Month
    21,                       !- Day of Month
    WinterDesignDay,          !- Day Type
    -3.4,                     !- Maximum DryBulb Temperature
    0,                        !- Daily DryBulb Temperature Range
    DefaultMultipliers,       !- DryBulb Temperature Range Modifier Type
    ,                         !- DryBulb Temperature Range Modifier Day Schedule Name
    Wetbulb,                  !- Humidity Condition Type
    -3.4,                     !- Wetbulb or DewPoint at Maximum DryBulb
    ,                         !- Humidity Condition Day Schedule Name
    ,                         !- Humidity Ratio at Maximum DryBulb
    ,                         !- Enthalpy at Maximum DryBulb
    ,                         !- Daily WetBulb Temperature Range
    101549,                   !- Barometric Pressure
    2,                        !- Wind Speed
    11,                       !- Wind Direction
    No,                       !- Rain Indicator
    No,                       !- Snow Indicator
    No,                       !- Daylight Saving Time Indicator
    ASHRAEClearSky,           !- Solar Model Indicator
    ,                         !- Beam Solar Day Schedule Name
    ,                         !- Diffuse Solar Day Schedule Name
    ,                         !- ASHRAE Clear Sky Optical Depth for Beam Irradiance taub
    ,                         !- ASHRAE Clear Sky Optical Depth for Diffuse Irradiance taud
    0,                        !- Sky Clearness
    ,                         !- Maximum Number Warmup Days
    FullResetAtBeginEnvironment;    !- Begin Environment Reset Mode

RunPeriod,
    Run Period 1,             !- Name
    1,                        !- Begin Month
    1,                        !- Begin Day of Month
    2007,                     !- Begin Year
    12,                       !- End Month
    31,                       !- End Day of Month
    2009,                     !- End Year
    Monday,                   !- Day of Week for Start Day
    No,                       !- Use Weather File Holidays and Special Days
    No,                       !- Use Weather File Daylight Saving Period
    No,                       !- Apply Weekend Holiday Rule
    Yes,                      !- Use Weather File Rain Indicators
    Yes,                      !- Use Weather File Snow Indicators
    No;                       !- Treat Weather as Actual

Site:WaterMainsTemperature,
    CorrelationFromWeatherFile;    !- Calculation Method

ScheduleTypeLimits,
    Fractional,               !- Name
    0,                        !- Lower Limit Value
    1,                        !- Upper Limit Value
    Continuous,               !- Numeric Type
    dimensionless;            !- Unit Type

ScheduleTypeLimits,
    Activity Level,           !- Name
    0,                        !- Lower Limit Value
    ,                         !- Upper Limit Value
    Continuous,               !- Numeric Type
    activitylevel;            !- Unit Type

ScheduleTypeLimits,
    Z1_Ground_Floor Thermostat Schedule Type Limits,    !- Name
    0,                        !- Lower Limit Value
    4,                        !- Upper Limit Value
    DISCRETE;                 !- Numeric Type

ScheduleTypeLimits,
    Temperature,              !- Name
    -273.15,                  !- Lower Limit Value
    ,                         !- Upper Limit Value
    Continuous,               !- Numeric Type
    temperature;              !- Unit Type

ScheduleTypeLimits,
    Z2_First_Floor Thermostat Schedule Type Limits,    !- Name
    0,                        !- Lower Limit Value
    4,                        !- Upper Limit Value
    DISCRETE;                 !- Numeric Type

ScheduleTypeLimits,
    OnOff,                    !- Name
    0,                        !- Lower Limit Value
    1,                        !- Upper Limit Value
    Discrete,                 !- Numeric Type
    availability;             !- Unit Type

ScheduleTypeLimits,
    Temperature 1,            !- Name
    ,                         !- Lower Limit Value
    ,                         !- Upper Limit Value
    Continuous,               !- Numeric Type
    temperature;              !- Unit Type

Schedule:Day:Interval,
    Schedule Day 1,           !- Name
    Fractional,               !- Schedule Type Limits Name
    No,                       !- Interpolate to Timestep
    06:00,                    !- Time 1
    0,                        !- Value Until Time 1
    07:00,                    !- Time 2
    0.1,                      !- Value Until Time 2
    08:00,                    !- Time 3
    0.3,                      !- Value Until Time 3
    13:00,                    !- Time 4
    0.9,                      !- Value Until Time 4
    15:00,                    !- Time 5
    0.8,                      !- Value Until Time 5
    17:00,                    !- Time 6
    0.7,                      !- Value Until Time 6
    18:00,                    !- Time 7
    0.6,                      !- Value Until Time 7
    19:00,                    !- Time 8
    0.5,                      !- Value Until Time 8
    21:00,                    !- Time 9
    0.1,                      !- Value Until Time 9
    24:00,                    !- Time 10
    0;                        !- Value Until Time 10

Schedule:Day:Interval,
    WeeklySchedule_44a7830f_Sunday,    !- Name
    Fractional,               !- Schedule Type Limits Name
    No,                       !- Interpolate to Timestep
    24:00,                    !- Time 1
    0;                        !- Value Until Time 1

Schedule:Day:Interval,
    WeeklySchedule_44a7830f_Monday_SmrDsn 1,    !- Name
    Fractional,               !- Schedule Type Limits Name
    No,                       !- Interpolate to Timestep
    06:00,                    !- Time 1
    0,                        !- Value Until Time 1
    07:00,                    !- Time 2
    0.1,                      !- Value Until Time 2
    08:00,                    !- Time 3
    0.3,                      !- Value Until Time 3
    13:00,                    !- Time 4
    0.9,                      !- Value Until Time 4
    15:00,                    !- Time 5
    0.8,                      !- Value Until Time 5
    17:00,                    !- Time 6
    0.7,                      !- Value Until Time 6
    18:00,                    !- Time 7
    0.6,                      !- Value Until Time 7
    19:00,                    !- Time 8
    0.5,                      !- Value Until Time 8
    21:00,                    !- Time 9
    0.1,                      !- Value Until Time 9
    24:00,                    !- Time 10
    0;                        !- Value Until Time 10

Schedule:Day:Interval,
    WeeklySchedule_44a7830f_Monday_SmrDsn_WntrDsn 1,    !- Name
    Fractional,               !- Schedule Type Limits Name
    No,                       !- Interpolate to Timestep
    24:00,                    !- Time 1
    0;                        !- Value Until Time 1

Schedule:Day:Interval,
    WeeklySchedule_44a7830f_Hol 1,    !- Name
    Fractional,               !- Schedule Type Limits Name
    No,                       !- Interpolate to Timestep
    24:00,                    !- Time 1
    0;                        !- Value Until Time 1

Schedule:Day:Interval,
    Seated Adult Activity_Day Schedule,    !- Name
    Activity Level,           !- Schedule Type Limits Name
    No,                       !- Interpolate to Timestep
    24:00,                    !- Time 1
    120;                      !- Value Until Time 1

Schedule:Day:Interval,
    ProgramType_6f01ee36_1aa9abae_Setpoint_HtgSetp_Day Schedule,    !- Name
    Temperature,              !- Schedule Type Limits Name
    No,                       !- Interpolate to Timestep
    24:00,                    !- Time 1
    20;                       !- Value Until Time 1

Schedule:Day:Interval,
    ProgramType_6f01ee36_1aa9abae_Setpoint_ClgSetp_Day Schedule,    !- Name
    Temperature,              !- Schedule Type Limits Name
    No,                       !- Interpolate to Timestep
    24:00,                    !- Time 1
    25;                       !- Value Until Time 1

Schedule:Day:Interval,
    Always On_Day Schedule,    !- Name
    Fractional,               !- Schedule Type Limits Name
    No,                       !- Interpolate to Timestep
    24:00,                    !- Time 1
    1;                        !- Value Until Time 1

Schedule:Day:Interval,
    Schedule Day 2,           !- Name
    Temperature 1,            !- Schedule Type Limits Name
    No,                       !- Interpolate to Timestep
    24:00,                    !- Time 1
    60;                       !- Value Until Time 1

Schedule:Day:Interval,
    Schedule Day 3,           !- Name
    ,                         !- Schedule Type Limits Name
    No,                       !- Interpolate to Timestep
    24:00,                    !- Time 1
    0.1;                      !- Value Until Time 1

Schedule:Day:Interval,
    Schedule Day 4,           !- Name
    ,                         !- Schedule Type Limits Name
    No,                       !- Interpolate to Timestep
    24:00,                    !- Time 1
    0.05;                     !- Value Until Time 1

Schedule:Day:Interval,
    Schedule Day 5,           !- Name
    Temperature 1,            !- Schedule Type Limits Name
    No,                       !- Interpolate to Timestep
    24:00,                    !- Time 1
    60;                       !- Value Until Time 1

Schedule:Day:Interval,
    Schedule Day 6,           !- Name
    Temperature 1,            !- Schedule Type Limits Name
    No,                       !- Interpolate to Timestep
    24:00,                    !- Time 1
    22;                       !- Value Until Time 1

Schedule:Day:Interval,
    Schedule Day 7,           !- Name
    Temperature 1,            !- Schedule Type Limits Name
    No,                       !- Interpolate to Timestep
    24:00,                    !- Time 1
    60;                       !- Value Until Time 1

Schedule:Day:Interval,
    Schedule Day 8,           !- Name
    Temperature 1,            !- Schedule Type Limits Name
    No,                       !- Interpolate to Timestep
    24:00,                    !- Time 1
    22;                       !- Value Until Time 1

Schedule:Day:Interval,
    WeeklySchedule_44a7830f_Hol,    !- Name
    Fractional,               !- Schedule Type Limits Name
    No,                       !- Interpolate to Timestep
    24:00,                    !- Time 1
    0;                        !- Value Until Time 1

Schedule:Day:Interval,
    WeeklySchedule_44a7830f_Monday,    !- Name
    Fractional,               !- Schedule Type Limits Name
    No,                       !- Interpolate to Timestep
    06:00,                    !- Time 1
    0,                        !- Value Until Time 1
    07:00,                    !- Time 2
    0.1,                      !- Value Until Time 2
    08:00,                    !- Time 3
    0.3,                      !- Value Until Time 3
    13:00,                    !- Time 4
    0.9,                      !- Value Until Time 4
    15:00,                    !- Time 5
    0.8,                      !- Value Until Time 5
    17:00,                    !- Time 6
    0.7,                      !- Value Until Time 6
    18:00,                    !- Time 7
    0.6,                      !- Value Until Time 7
    19:00,                    !- Time 8
    0.5,                      !- Value Until Time 8
    21:00,                    !- Time 9
    0.1,                      !- Value Until Time 9
    24:00,                    !- Time 10
    0;                        !- Value Until Time 10

Schedule:Day:Interval,
    WeeklySchedule_44a7830f_Monday_SmrDsn,    !- Name
    Fractional,               !- Schedule Type Limits Name
    No,                       !- Interpolate to Timestep
    06:00,                    !- Time 1
    0,                        !- Value Until Time 1
    07:00,                    !- Time 2
    0.1,                      !- Value Until Time 2
    08:00,                    !- Time 3
    0.3,                      !- Value Until Time 3
    13:00,                    !- Time 4
    0.9,                      !- Value Until Time 4
    15:00,                    !- Time 5
    0.8,                      !- Value Until Time 5
    17:00,                    !- Time 6
    0.7,                      !- Value Until Time 6
    18:00,                    !- Time 7
    0.6,                      !- Value Until Time 7
    19:00,                    !- Time 8
    0.5,                      !- Value Until Time 8
    21:00,                    !- Time 9
    0.1,                      !- Value Until Time 9
    24:00,                    !- Time 10
    0;                        !- Value Until Time 10

Schedule:Day:Interval,
    WeeklySchedule_44a7830f_Monday_SmrDsn_WntrDsn,    !- Name
    Fractional,               !- Schedule Type Limits Name
    No,                       !- Interpolate to Timestep
    24:00,                    !- Time 1
    0;                        !- Value Until Time 1

Schedule:Week:Daily,
    WeeklySchedule_44a7830f Week Rule - Jan1-Jan6,    !- Name
    Schedule Day 1,           !- Sunday ScheduleDay Name
    Schedule Day 1,           !- Monday ScheduleDay Name
    Schedule Day 1,           !- Tuesday ScheduleDay Name
    Schedule Day 1,           !- Wednesday ScheduleDay Name
    Schedule Day 1,           !- Thursday ScheduleDay Name
    Schedule Day 1,           !- Friday ScheduleDay Name
    WeeklySchedule_44a7830f_Sunday,    !- Saturday ScheduleDay Name
    WeeklySchedule_44a7830f_Hol 1,    !- Holiday ScheduleDay Name
    WeeklySchedule_44a7830f_Monday_SmrDsn 1,    !- SummerDesignDay ScheduleDay Name
    WeeklySchedule_44a7830f_Monday_SmrDsn_WntrDsn 1,    !- WinterDesignDay ScheduleDay Name
    WeeklySchedule_44a7830f_Sunday,    !- CustomDay1 ScheduleDay Name
    WeeklySchedule_44a7830f_Sunday;    !- CustomDay2 ScheduleDay Name

Schedule:Week:Daily,
    WeeklySchedule_44a7830f Week Rule - Jan7-Dec31,    !- Name
    WeeklySchedule_44a7830f_Sunday,    !- Sunday ScheduleDay Name
    Schedule Day 1,           !- Monday ScheduleDay Name
    Schedule Day 1,           !- Tuesday ScheduleDay Name
    Schedule Day 1,           !- Wednesday ScheduleDay Name
    Schedule Day 1,           !- Thursday ScheduleDay Name
    Schedule Day 1,           !- Friday ScheduleDay Name
    WeeklySchedule_44a7830f_Sunday,    !- Saturday ScheduleDay Name
    WeeklySchedule_44a7830f_Hol 1,    !- Holiday ScheduleDay Name
    WeeklySchedule_44a7830f_Monday_SmrDsn 1,    !- SummerDesignDay ScheduleDay Name
    WeeklySchedule_44a7830f_Monday_SmrDsn_WntrDsn 1,    !- WinterDesignDay ScheduleDay Name
    WeeklySchedule_44a7830f_Sunday,    !- CustomDay1 ScheduleDay Name
    WeeklySchedule_44a7830f_Sunday;    !- CustomDay2 ScheduleDay Name

Schedule:Week:Daily,
    Seated Adult Activity Week Rule - Jan1-Dec31,    !- Name
    Seated Adult Activity_Day Schedule,    !- Sunday ScheduleDay Name
    Seated Adult Activity_Day Schedule,    !- Monday ScheduleDay Name
    Seated Adult Activity_Day Schedule,    !- Tuesday ScheduleDay Name
    Seated Adult Activity_Day Schedule,    !- Wednesday ScheduleDay Name
    Seated Adult Activity_Day Schedule,    !- Thursday ScheduleDay Name
    Seated Adult Activity_Day Schedule,    !- Friday ScheduleDay Name
    Seated Adult Activity_Day Schedule,    !- Saturday ScheduleDay Name
    Seated Adult Activity_Day Schedule,    !- Holiday ScheduleDay Name
    Seated Adult Activity_Day Schedule,    !- SummerDesignDay ScheduleDay Name
    Seated Adult Activity_Day Schedule,    !- WinterDesignDay ScheduleDay Name
    Seated Adult Activity_Day Schedule,    !- CustomDay1 ScheduleDay Name
    Seated Adult Activity_Day Schedule;    !- CustomDay2 ScheduleDay Name

Schedule:Week:Daily,
    ProgramType_6f01ee36_1aa9abae_Setpoint_HtgSetp Week Rule - Jan1-Dec31,    !- Name
    ProgramType_6f01ee36_1aa9abae_Setpoint_HtgSetp_Day Schedule,    !- Sunday ScheduleDay Name
    ProgramType_6f01ee36_1aa9abae_Setpoint_HtgSetp_Day Schedule,    !- Monday ScheduleDay Name
    ProgramType_6f01ee36_1aa9abae_Setpoint_HtgSetp_Day Schedule,    !- Tuesday ScheduleDay Name
    ProgramType_6f01ee36_1aa9abae_Setpoint_HtgSetp_Day Schedule,    !- Wednesday ScheduleDay Name
    ProgramType_6f01ee36_1aa9abae_Setpoint_HtgSetp_Day Schedule,    !- Thursday ScheduleDay Name
    ProgramType_6f01ee36_1aa9abae_Setpoint_HtgSetp_Day Schedule,    !- Friday ScheduleDay Name
    ProgramType_6f01ee36_1aa9abae_Setpoint_HtgSetp_Day Schedule,    !- Saturday ScheduleDay Name
    ProgramType_6f01ee36_1aa9abae_Setpoint_HtgSetp_Day Schedule,    !- Holiday ScheduleDay Name
    ProgramType_6f01ee36_1aa9abae_Setpoint_HtgSetp_Day Schedule,    !- SummerDesignDay ScheduleDay Name
    ProgramType_6f01ee36_1aa9abae_Setpoint_HtgSetp_Day Schedule,    !- WinterDesignDay ScheduleDay Name
    ProgramType_6f01ee36_1aa9abae_Setpoint_HtgSetp_Day Schedule,    !- CustomDay1 ScheduleDay Name
    ProgramType_6f01ee36_1aa9abae_Setpoint_HtgSetp_Day Schedule;    !- CustomDay2 ScheduleDay Name

Schedule:Week:Daily,
    ProgramType_6f01ee36_1aa9abae_Setpoint_ClgSetp Week Rule - Jan1-Dec31,    !- Name
    ProgramType_6f01ee36_1aa9abae_Setpoint_ClgSetp_Day Schedule,    !- Sunday ScheduleDay Name
    ProgramType_6f01ee36_1aa9abae_Setpoint_ClgSetp_Day Schedule,    !- Monday ScheduleDay Name
    ProgramType_6f01ee36_1aa9abae_Setpoint_ClgSetp_Day Schedule,    !- Tuesday ScheduleDay Name
    ProgramType_6f01ee36_1aa9abae_Setpoint_ClgSetp_Day Schedule,    !- Wednesday ScheduleDay Name
    ProgramType_6f01ee36_1aa9abae_Setpoint_ClgSetp_Day Schedule,    !- Thursday ScheduleDay Name
    ProgramType_6f01ee36_1aa9abae_Setpoint_ClgSetp_Day Schedule,    !- Friday ScheduleDay Name
    ProgramType_6f01ee36_1aa9abae_Setpoint_ClgSetp_Day Schedule,    !- Saturday ScheduleDay Name
    ProgramType_6f01ee36_1aa9abae_Setpoint_ClgSetp_Day Schedule,    !- Holiday ScheduleDay Name
    ProgramType_6f01ee36_1aa9abae_Setpoint_ClgSetp_Day Schedule,    !- SummerDesignDay ScheduleDay Name
    ProgramType_6f01ee36_1aa9abae_Setpoint_ClgSetp_Day Schedule,    !- WinterDesignDay ScheduleDay Name
    ProgramType_6f01ee36_1aa9abae_Setpoint_ClgSetp_Day Schedule,    !- CustomDay1 ScheduleDay Name
    ProgramType_6f01ee36_1aa9abae_Setpoint_ClgSetp_Day Schedule;    !- CustomDay2 ScheduleDay Name

Schedule:Week:Daily,
    0.05 Hot Water Latent Fraction Week Rule - Jan1-Dec31,    !- Name
    Schedule Day 4,           !- Sunday ScheduleDay Name
    Schedule Day 4,           !- Monday ScheduleDay Name
    Schedule Day 4,           !- Tuesday ScheduleDay Name
    Schedule Day 4,           !- Wednesday ScheduleDay Name
    Schedule Day 4,           !- Thursday ScheduleDay Name
    Schedule Day 4,           !- Friday ScheduleDay Name
    Schedule Day 4,           !- Saturday ScheduleDay Name
    Schedule Day 4,           !- Holiday ScheduleDay Name
    Schedule Day 4,           !- SummerDesignDay ScheduleDay Name
    Schedule Day 4,           !- WinterDesignDay ScheduleDay Name
    Schedule Day 4,           !- CustomDay1 ScheduleDay Name
    Schedule Day 4;           !- CustomDay2 ScheduleDay Name

Schedule:Week:Daily,
    0.1 Hot Water Sensible Fraction Week Rule - Jan1-Dec31,    !- Name
    Schedule Day 3,           !- Sunday ScheduleDay Name
    Schedule Day 3,           !- Monday ScheduleDay Name
    Schedule Day 3,           !- Tuesday ScheduleDay Name
    Schedule Day 3,           !- Wednesday ScheduleDay Name
    Schedule Day 3,           !- Thursday ScheduleDay Name
    Schedule Day 3,           !- Friday ScheduleDay Name
    Schedule Day 3,           !- Saturday ScheduleDay Name
    Schedule Day 3,           !- Holiday ScheduleDay Name
    Schedule Day 3,           !- SummerDesignDay ScheduleDay Name
    Schedule Day 3,           !- WinterDesignDay ScheduleDay Name
    Schedule Day 3,           !- CustomDay1 ScheduleDay Name
    Schedule Day 3;           !- CustomDay2 ScheduleDay Name

Schedule:Week:Daily,
    22.0C Ambient Condition Week Rule - Jan1-Dec31,    !- Name
    Schedule Day 8,           !- Sunday ScheduleDay Name
    Schedule Day 8,           !- Monday ScheduleDay Name
    Schedule Day 8,           !- Tuesday ScheduleDay Name
    Schedule Day 8,           !- Wednesday ScheduleDay Name
    Schedule Day 8,           !- Thursday ScheduleDay Name
    Schedule Day 8,           !- Friday ScheduleDay Name
    Schedule Day 8,           !- Saturday ScheduleDay Name
    Schedule Day 8,           !- Holiday ScheduleDay Name
    Schedule Day 8,           !- SummerDesignDay ScheduleDay Name
    Schedule Day 8,           !- WinterDesignDay ScheduleDay Name
    Schedule Day 8,           !- CustomDay1 ScheduleDay Name
    Schedule Day 8;           !- CustomDay2 ScheduleDay Name

Schedule:Week:Daily,
    60.0C Hot Water Week Rule - Jan1-Dec31,    !- Name
    Schedule Day 2,           !- Sunday ScheduleDay Name
    Schedule Day 2,           !- Monday ScheduleDay Name
    Schedule Day 2,           !- Tuesday ScheduleDay Name
    Schedule Day 2,           !- Wednesday ScheduleDay Name
    Schedule Day 2,           !- Thursday ScheduleDay Name
    Schedule Day 2,           !- Friday ScheduleDay Name
    Schedule Day 2,           !- Saturday ScheduleDay Name
    Schedule Day 2,           !- Holiday ScheduleDay Name
    Schedule Day 2,           !- SummerDesignDay ScheduleDay Name
    Schedule Day 2,           !- WinterDesignDay ScheduleDay Name
    Schedule Day 2,           !- CustomDay1 ScheduleDay Name
    Schedule Day 2;           !- CustomDay2 ScheduleDay Name

Schedule:Week:Daily,
    60C Hot Water Week Rule - Jan1-Dec31,    !- Name
    Schedule Day 5,           !- Sunday ScheduleDay Name
    Schedule Day 5,           !- Monday ScheduleDay Name
    Schedule Day 5,           !- Tuesday ScheduleDay Name
    Schedule Day 5,           !- Wednesday ScheduleDay Name
    Schedule Day 5,           !- Thursday ScheduleDay Name
    Schedule Day 5,           !- Friday ScheduleDay Name
    Schedule Day 5,           !- Saturday ScheduleDay Name
    Schedule Day 5,           !- Holiday ScheduleDay Name
    Schedule Day 5,           !- SummerDesignDay ScheduleDay Name
    Schedule Day 5,           !- WinterDesignDay ScheduleDay Name
    Schedule Day 5,           !- CustomDay1 ScheduleDay Name
    Schedule Day 5;           !- CustomDay2 ScheduleDay Name

Schedule:Week:Daily,
    Always On Week Rule - Jan1-Dec31,    !- Name
    Always On_Day Schedule,    !- Sunday ScheduleDay Name
    Always On_Day Schedule,    !- Monday ScheduleDay Name
    Always On_Day Schedule,    !- Tuesday ScheduleDay Name
    Always On_Day Schedule,    !- Wednesday ScheduleDay Name
    Always On_Day Schedule,    !- Thursday ScheduleDay Name
    Always On_Day Schedule,    !- Friday ScheduleDay Name
    Always On_Day Schedule,    !- Saturday ScheduleDay Name
    Always On_Day Schedule,    !- Holiday ScheduleDay Name
    Always On_Day Schedule,    !- SummerDesignDay ScheduleDay Name
    Always On_Day Schedule,    !- WinterDesignDay ScheduleDay Name
    Always On_Day Schedule,    !- CustomDay1 ScheduleDay Name
    Always On_Day Schedule;    !- CustomDay2 ScheduleDay Name

Schedule:Week:Daily,
    Schedule Ruleset 1 Week Rule - Jan1-Dec31,    !- Name
    Schedule Day 6,           !- Sunday ScheduleDay Name
    Schedule Day 6,           !- Monday ScheduleDay Name
    Schedule Day 6,           !- Tuesday ScheduleDay Name
    Schedule Day 6,           !- Wednesday ScheduleDay Name
    Schedule Day 6,           !- Thursday ScheduleDay Name
    Schedule Day 6,           !- Friday ScheduleDay Name
    Schedule Day 6,           !- Saturday ScheduleDay Name
    Schedule Day 6,           !- Holiday ScheduleDay Name
    Schedule Day 6,           !- SummerDesignDay ScheduleDay Name
    Schedule Day 6,           !- WinterDesignDay ScheduleDay Name
    Schedule Day 6,           !- CustomDay1 ScheduleDay Name
    Schedule Day 6;           !- CustomDay2 ScheduleDay Name

Schedule:Week:Daily,
    Schedule Ruleset 2 Week Rule - Jan1-Dec31,    !- Name
    Schedule Day 7,           !- Sunday ScheduleDay Name
    Schedule Day 7,           !- Monday ScheduleDay Name
    Schedule Day 7,           !- Tuesday ScheduleDay Name
    Schedule Day 7,           !- Wednesday ScheduleDay Name
    Schedule Day 7,           !- Thursday ScheduleDay Name
    Schedule Day 7,           !- Friday ScheduleDay Name
    Schedule Day 7,           !- Saturday ScheduleDay Name
    Schedule Day 7,           !- Holiday ScheduleDay Name
    Schedule Day 7,           !- SummerDesignDay ScheduleDay Name
    Schedule Day 7,           !- WinterDesignDay ScheduleDay Name
    Schedule Day 7,           !- CustomDay1 ScheduleDay Name
    Schedule Day 7;           !- CustomDay2 ScheduleDay Name

Schedule:Year,
    WeeklySchedule_44a7830f,    !- Name
    Fractional,               !- Schedule Type Limits Name
    WeeklySchedule_44a7830f Week Rule - Jan1-Jan6,    !- ScheduleWeek Name 1
    1,                        !- Start Month 1
    1,                        !- Start Day 1
    1,                        !- End Month 1
    6,                        !- End Day 1
    WeeklySchedule_44a7830f Week Rule - Jan7-Dec31,    !- ScheduleWeek Name 2
    1,                        !- Start Month 2
    7,                        !- Start Day 2
    12,                       !- End Month 2
    31;                       !- End Day 2

Schedule:Year,
    Seated Adult Activity,    !- Name
    Activity Level,           !- Schedule Type Limits Name
    Seated Adult Activity Week Rule - Jan1-Dec31,    !- ScheduleWeek Name 1
    1,                        !- Start Month 1
    1,                        !- Start Day 1
    12,                       !- End Month 1
    31;                       !- End Day 1

Schedule:Year,