
Version,
  22.2;                                   !- Version Identifier

Timestep,
  1;                                      !- Number of Timesteps per Hour

LifeCycleCost:Parameters,
  Life Cycle Cost Parameters,             !- Name
  EndOfYear,                              !- Discounting Convention
  ConstantDollar,                         !- Inflation Approach
  0.03,                                   !- Real Discount Rate
  ,                                       !- Nominal Discount Rate
  ,                                       !- Inflation
  ,                                       !- Base Date Month
  2011,                                   !- Base Date Year
  ,                                       !- Service Date Month
  2011,                                   !- Service Date Year
  25,                                     !- Length of Study Period in Years
  ,                                       !- Tax rate
  None;                                   !- Depreciation Method

LifeCycleCost:UsePriceEscalation,
  U.S. Avg  Commercial-Electricity,       !- Name
  Electricity,                            !- Resource
  2011,                                   !- Escalation Start Year
  January,                                !- Escalation Start Month
  0.9838,                                 !- Year Escalation 1
  0.9730,                                 !- Year Escalation 2
  0.9632,                                 !- Year Escalation 3
  0.9611,                                 !- Year Escalation 4
  0.9571,                                 !- Year Escalation 5
  0.9553,                                 !- Year Escalation 6
  0.9539,                                 !- Year Escalation 7
  0.9521,                                 !- Year Escalation 8
  0.9546,                                 !- Year Escalation 9
  0.9550,                                 !- Year Escalation 10
  0.9553,                                 !- Year Escalation 11
  0.9564,                                 !- Year Escalation 12
  0.9575,                                 !- Year Escalation 13
  0.9596,                                 !- Year Escalation 14
  0.9618,                                 !- Year Escalation 15
  0.9614,                                 !- Year Escalation 16
  0.9618,                                 !- Year Escalation 17
  0.9618,                                 !- Year Escalation 18
  0.9593,                                 !- Year Escalation 19
  0.9589,                                 !- Year Escalation 20
  0.9607,                                 !- Year Escalation 21
  0.9625,                                 !- Year Escalation 22
  0.9650,                                 !- Year Escalation 23
  0.9708,                                 !- Year Escalation 24
  0.9751,                                 !- Year Escalation 25
  0.9762,                                 !- Year Escalation 26
  0.9766,                                 !- Year Escalation 27
  0.9766,                                 !- Year Escalation 28
  0.9769,                                 !- Year Escalation 29
  0.9773;                                 !- Year Escalation 30

LifeCycleCost:UsePriceEscalation,
  U.S. Avg  Commercial-Distillate Oil,    !- Name
  FuelOilNo1,                             !- Resource
  2011,                                   !- Escalation Start Year
  January,                                !- Escalation Start Month
  0.9714,                                 !- Year Escalation 1
  0.9730,                                 !- Year Escalation 2
  0.9942,                                 !- Year Escalation 3
  1.0164,                                 !- Year Escalation 4
  1.0541,                                 !- Year Escalation 5
  1.0928,                                 !- Year Escalation 6
  1.1267,                                 !- Year Escalation 7
  1.1580,                                 !- Year Escalation 8
  1.1792,                                 !- Year Escalation 9
  1.1967,                                 !- Year Escalation 10
  1.2200,                                 !- Year Escalation 11
  1.2333,                                 !- Year Escalation 12
  1.2566,                                 !- Year Escalation 13
  1.2709,                                 !- Year Escalation 14
  1.2826,                                 !- Year Escalation 15
  1.2985,                                 !- Year Escalation 16
  1.3102,                                 !- Year Escalation 17
  1.3250,                                 !- Year Escalation 18
  1.3261,                                 !- Year Escalation 19
  1.3282,                                 !- Year Escalation 20
  1.3324,                                 !- Year Escalation 21
  1.3356,                                 !- Year Escalation 22
  1.3431,                                 !- Year Escalation 23
  1.3510,                                 !- Year Escalation 24
  1.3568,                                 !- Year Escalation 25
  1.3606,                                 !- Year Escalation 26
  1.3637,                                 !- Year Escalation 27
  1.3674,                                 !- Year Escalation 28
  1.3706,                                 !- Year Escalation 29
  1.3743;                                 !- Year Escalation 30

LifeCycleCost:UsePriceEscalation,
  U.S. Avg  Commercial-Residual Oil,      !- Name
  FuelOilNo2,                             !- Resource
  2011,                                   !- Escalation Start Year
  January,                                !- Escalation Start Month
  0.8469,                                 !- Year Escalation 1
  0.8257,                                 !- Year Escalation 2
  0.8681,                                 !- Year Escalation 3
  0.8988,                                 !- Year Escalation 4
  0.9289,                                 !- Year Escalation 5
  0.9604,                                 !- Year Escalation 6
  0.9897,                                 !- Year Escalation 7
  1.0075,                                 !- Year Escalation 8
  1.0314,                                 !- Year Escalation 9
  1.0554,                                 !- Year Escalation 10
  1.0861,                                 !- Year Escalation 11
  1.1278,                                 !- Year Escalation 12
  1.1497,                                 !- Year Escalation 13
  1.1620,                                 !- Year Escalation 14
  1.1743,                                 !- Year Escalation 15
  1.1852,                                 !- Year Escalation 16
  1.1948,                                 !- Year Escalation 17
  1.2037,                                 !- Year Escalation 18
  1.2071,                                 !- Year Escalation 19
  1.2119,                                 !- Year Escalation 20
  1.2139,                                 !- Year Escalation 21
  1.2194,                                 !- Year Escalation 22
  1.2276,                                 !- Year Escalation 23
  1.2365,                                 !- Year Escalation 24
  1.2420,                                 !- Year Escalation 25
  1.2461,                                 !- Year Escalation 26
  1.2509,                                 !- Year Escalation 27
  1.2550,                                 !- Year Escalation 28
  1.2591,                                 !- Year Escalation 29
  1.2638;                                 !- Year Escalation 30

LifeCycleCost:UsePriceEscalation,
  U.S. Avg  Commercial-Natural gas,       !- Name
  NaturalGas,                             !- Resource
  2011,                                   !- Escalation Start Year
  January,                                !- Escalation Start Month
  0.9823,                                 !- Year Escalation 1
  0.9557,                                 !- Year Escalation 2
  0.9279,                                 !- Year Escalation 3
  0.9257,                                 !- Year Escalation 4
  0.9346,                                 !- Year Escalation 5
  0.9412,                                 !- Year Escalation 6
  0.9512,                                 !- Year Escalation 7
  0.9645,                                 !- Year Escalation 8
  0.9856,                                 !- Year Escalation 9
  1.0067,                                 !- Year Escalation 10
  1.0222,                                 !- Year Escalation 11
  1.0410,                                 !- Year Escalation 12
  1.0610,                                 !- Year Escalation 13
  1.0787,                                 !- Year Escalation 14
  1.0942,                                 !- Year Escalation 15
  1.1098,                                 !- Year Escalation 16
  1.1220,                                 !- Year Escalation 17
  1.1308,                                 !- Year Escalation 18
  1.1386,                                 !- Year Escalation 19
  1.1486,                                 !- Year Escalation 20
  1.1619,                                 !- Year Escalation 21
  1.1763,                                 !- Year Escalation 22
  1.1918,                                 !- Year Escalation 23
  1.2118,                                 !- Year Escalation 24
  1.2284,                                 !- Year Escalation 25
  1.2439,                                 !- Year Escalation 26
  1.2605,                                 !- Year Escalation 27
  1.2772,                                 !- Year Escalation 28
  1.2938,                                 !- Year Escalation 29
  1.3115;                                 !- Year Escalation 30

LifeCycleCost:UsePriceEscalation,
  U.S. Avg  Commercial-Coal,              !- Name
  Coal,                                   !- Resource
  2011,                                   !- Escalation Start Year
  January,                                !- Escalation Start Month
  0.9970,                                 !- Year Escalation 1
  1.0089,                                 !- Year Escalation 2
  1.0089,                                 !- Year Escalation 3
  0.9941,                                 !- Year Escalation 4
  0.9941,                                 !- Year Escalation 5
  1.0000,                                 !- Year Escalation 6
  1.0030,                                 !- Year Escalation 7
  1.0059,                                 !- Year Escalation 8
  1.0089,                                 !- Year Escalation 9
  1.0119,                                 !- Year Escalation 10
  1.0148,                                 !- Year Escalation 11
  1.0178,                                 !- Year Escalation 12
  1.0208,                                 !- Year Escalation 13
  1.0267,                                 !- Year Escalation 14
  1.0297,                                 !- Year Escalation 15
  1.0356,                                 !- Year Escalation 16
  1.0415,                                 !- Year Escalation 17
  1.0534,                                 !- Year Escalation 18
  1.0564,                                 !- Year Escalation 19
  1.0593,                                 !- Year Escalation 20
  1.0653,                                 !- Year Escalation 21
  1.0712,                                 !- Year Escalation 22
  1.0742,                                 !- Year Escalation 23
  1.0801,                                 !- Year Escalation 24
  1.0831,                                 !- Year Escalation 25
  1.0831,                                 !- Year Escalation 26
  1.0861,                                 !- Year Escalation 27
  1.0890,                                 !- Year Escalation 28
  1.0920,                                 !- Year Escalation 29
  1.0950;                                 !- Year Escalation 30

Building,
  Building 1,                             !- Name
  0,                                      !- North Axis {deg}
  Suburbs,                                !- Terrain
  ,                                       !- Loads Convergence Tolerance Value {W}
  ,                                       !- Temperature Convergence Tolerance Value {deltaC}
  FullExteriorWithReflections,            !- Solar Distribution
  ,                                       !- Maximum Number of Warmup Days
  ;                                       !- Minimum Number of Warmup Days

Shading:Building:Detailed,
  Shade_1e67c199,                         !- Name
  ,                                       !- Transmittance Schedule Name
  ,                                       !- Number of Vertices
  19.0585861792712, 7.73820939842038, 3.45653906651468, !- X,Y,Z Vertex 1 {m}
  19.4142480030994, 9.88881166690839, 3.26752386000003, !- X,Y,Z Vertex 2 {m}
  -36.0360166412747, 19.0590532053596, 3.26752386000003, !- X,Y,Z Vertex 3 {m}
  -36.3916784651029, 16.9084509368716, 3.45653906651468; !- X,Y,Z Vertex 4 {m}

Shading:Building:Detailed,
  Shade_4314e9fe,                         !- Name
  ,                                       !- Transmittance Schedule Name
  ,                                       !- Number of Vertices
  -39.897741454716, -4.29187621031573, 3.33530311500004, !- X,Y,Z Vertex 1 {m}
  -40.2134763551682, -6.20104989065202, 3.10083896632203, !- X,Y,Z Vertex 2 {m}
  36.0759435646501, -18.8176246172082, 3.10083896632203, !- X,Y,Z Vertex 3 {m}
  36.3916784651023, -16.9084509368717, 3.33530311500004; !- X,Y,Z Vertex 4 {m}

Shading:Building:Detailed,
  Shade_a5765cd0,                         !- Name
  ,                                       !- Transmittance Schedule Name
  ,                                       !- Number of Vertices
  -38.6622993361852, 3.17854778430802, 7.0841717702404, !- X,Y,Z Vertex 1 {m}
  -38.8259010352025, 2.18928730858962, 6.77731211671877, !- X,Y,Z Vertex 2 {m}
  27.7932992515569, -8.82804798540924, 6.77731211671877, !- X,Y,Z Vertex 3 {m}
  27.9569009505742, -7.83878750969096, 7.08417177024044; !- X,Y,Z Vertex 4 {m}

Zone,
  Z1_Ground_Floor,                        !- Name
  ,                                       !- Direction of Relative North {deg}
  0,                                      !- X Origin {m}
  0,                                      !- Y Origin {m}
  0,                                      !- Z Origin {m}
  ,                                       !- Type
  1,                                      !- Multiplier
  8.87557789500007,                       !- Ceiling Height {m}
  8271.70878182,                          !- Volume {m3}
  ,                                       !- Floor Area {m2}
  ,                                       !- Zone Inside Convection Algorithm
  ,                                       !- Zone Outside Convection Algorithm
  Yes;                                    !- Part of Total Floor Area

Space,
  Z1_Ground_Floor_Space,                  !- Name
  Z1_Ground_Floor,                        !- Zone Name
  ,                                       !- Ceiling Height {m}
  ,                                       !- Volume {m3}
  ,                                       !- Floor Area {m2}
  ProgramType_6f01ee36_1aa9abae;          !- Space Type

SpaceList,
  ProgramType_6f01ee36_1aa9abae,          !- Name
  Z2_First_Floor_Space,                   !- Space Name 1
  Z1_Ground_Floor_Space;                  !- Space Name 2

Lights,
  Lighting_023c8b0d,                      !- Name
  ProgramType_6f01ee36_1aa9abae,          !- Zone or ZoneList or Space or SpaceList Name
  WeeklySchedule_44a7830f,                !- Schedule Name
  Watts/Area,                             !- Design Level Calculation Method
  ,                                       !- Lighting Level {W}
  4.01499,                                !- Watts per Zone Floor Area {W/m2}
  ,                                       !- Watts per Person {W/person}
  0,                                      !- Return Air Fraction
  0.32,                                   !- Fraction Radiant
  0.25,                                   !- Fraction Visible
  1,                                      !- Fraction Replaceable
  General;                                !- End-Use Subcategory

ScheduleTypeLimits,
  Fractional,                             !- Name
  0,                                      !- Lower Limit Value {BasedOnField A3}
  1,                                      !- Upper Limit Value {BasedOnField A3}
  Continuous,                             !- Numeric Type
  dimensionless;                          !- Unit Type

Schedule:Day:Interval,
  Schedule Day 1,                         !- Name
  Fractional,                             !- Schedule Type Limits Name
  No,                                     !- Interpolate to Timestep
  06:00,                                  !- Time 1 {hh:mm}
  0,                                      !- Value Until Time 1
  07:00,                                  !- Time 2 {hh:mm}
  0.1,                                    !- Value Until Time 2
  08:00,                                  !- Time 3 {hh:mm}
  0.3,                                    !- Value Until Time 3
  13:00,                                  !- Time 4 {hh:mm}
  0.9,                                    !- Value Until Time 4
  15:00,                                  !- Time 5 {hh:mm}
  0.8,                                    !- Value Until Time 5
  17:00,                                  !- Time 6 {hh:mm}
  0.7,                                    !- Value Until Time 6
  18:00,                                  !- Time 7 {hh:mm}
  0.6,                                    !- Value Until Time 7
  19:00,                                  !- Time 8 {hh:mm}
  0.5,                                    !- Value Until Time 8
  21:00,                                  !- Time 9 {hh:mm}
  0.1,                                    !- Value Until Time 9
  24:00,                                  !- Time 10 {hh:mm}
  0;                                      !- Value Until Time 10

Schedule:Day:Interval,
  WeeklySchedule_44a7830f_Sunday,         !- Name
  Fractional,                             !- Schedule Type Limits Name
  No,                                     !- Interpolate to Timestep
  24:00,                                  !- Time 1 {hh:mm}
  0;                                      !- Value Until Time 1

Schedule:Week:Daily,
  WeeklySchedule_44a7830f Week Rule - Jan1-Jan6, !- Name
  Schedule Day 1,                         !- Sunday Schedule:Day Name
  Schedule Day 1,                         !- Monday Schedule:Day Name
  Schedule Day 1,                         !- Tuesday Schedule:Day Name
  Schedule Day 1,                         !- Wednesday Schedule:Day Name
  Schedule Day 1,                         !- Thursday Schedule:Day Name
  Schedule Day 1,                         !- Friday Schedule:Day Name
  WeeklySchedule_44a7830f_Sunday,         !- Saturday Schedule:Day Name
  WeeklySchedule_44a7830f_Hol 1,          !- Holiday Schedule:Day Name
  WeeklySchedule_44a7830f_Monday_SmrDsn 1, !- SummerDesignDay Schedule:Day Name
  WeeklySchedule_44a7830f_Monday_SmrDsn_WntrDsn 1, !- WinterDesignDay Schedule:Day Name
  WeeklySchedule_44a7830f_Sunday,         !- CustomDay1 Schedule:Day Name
  WeeklySchedule_44a7830f_Sunday;         !- CustomDay2 Schedule:Day Name

Schedule:Week:Daily,
  WeeklySchedule_44a7830f Week Rule - Jan7-Dec31, !- Name
  WeeklySchedule_44a7830f_Sunday,         !- Sunday Schedule:Day Name
  Schedule Day 1,                         !- Monday Schedule:Day Name
  Schedule Day 1,                         !- Tuesday Schedule:Day Name
  Schedule Day 1,                         !- Wednesday Schedule:Day Name
  Schedule Day 1,                         !- Thursday Schedule:Day Name
  Schedule Day 1,                         !- Friday Schedule:Day Name
  WeeklySchedule_44a7830f_Sunday,         !- Saturday Schedule:Day Name
  WeeklySchedule_44a7830f_Hol 1,          !- Holiday Schedule:Day Name
  WeeklySchedule_44a7830f_Monday_SmrDsn 1, !- SummerDesignDay Schedule:Day Name
  WeeklySchedule_44a7830f_Monday_SmrDsn_WntrDsn 1, !- WinterDesignDay Schedule:Day Name
  WeeklySchedule_44a7830f_Sunday,         !- CustomDay1 Schedule:Day Name
  WeeklySchedule_44a7830f_Sunday;         !- CustomDay2 Schedule:Day Name

Schedule:Year,
  WeeklySchedule_44a7830f,                !- Name
  Fractional,                             !- Schedule Type Limits Name
  WeeklySchedule_44a7830f Week Rule - Jan1-Jan6, !- Schedule:Week Name 1
  1,                                      !- Start Month 1
  1,                                      !- Start Day 1
  1,                                      !- End Month 1
  6,                                      !- End Day 1
  WeeklySchedule_44a7830f Week Rule - Jan7-Dec31, !- Schedule:Week Name 2
  1,                                      !- Start Month 2
  7,                                      !- Start Day 2
  12,                                     !- End Month 2
  31;                                     !- End Day 2

Schedule:Day:Interval,
  WeeklySchedule_44a7830f_Monday_SmrDsn 1, !- Name
  Fractional,                             !- Schedule Type Limits Name
  No,                                     !- Interpolate to Timestep
  06:00,                                  !- Time 1 {hh:mm}
  0,                                      !- Value Until Time 1
  07:00,                                  !- Time 2 {hh:mm}
  0.1,                                    !- Value Until Time 2
  08:00,                                  !- Time 3 {hh:mm}
  0.3,                                    !- Value Until Time 3
  13:00,                                  !- Time 4 {hh:mm}
  0.9,                                    !- Value Until Time 4
  15:00,                                  !- Time 5 {hh:mm}
  0.8,                                    !- Value Until Time 5
  17:00,                                  !- Time 6 {hh:mm}
  0.7,                                    !- Value Until Time 6
  18:00,                                  !- Time 7 {hh:mm}
  0.6,                                    !- Value Until Time 7
  19:00,                                  !- Time 8 {hh:mm}
  0.5,                                    !- Value Until Time 8
  21:00,                                  !- Time 9 {hh:mm}
  0.1,                                    !- Value Until Time 9
  24:00,                                  !- Time 10 {hh:mm}
  0;                                      !- Value Until Time 10

Schedule:Day:Interval,
  WeeklySchedule_44a7830f_Monday_SmrDsn_WntrDsn 1, !- Name
  Fractional,                             !- Schedule Type Limits Name
  No,                                     !- Interpolate to Timestep
  24:00,                                  !- Time 1 {hh:mm}
  0;                                      !- Value Until Time 1

Schedule:Day:Interval,
  WeeklySchedule_44a7830f_Hol 1,          !- Name
  Fractional,                             !- Schedule Type Limits Name
  No,                                     !- Interpolate to Timestep
  24:00,                                  !- Time 1 {hh:mm}
  0;                                      !- Value Until Time 1

People,
  People_4c846909,                        !- Name
  ProgramType_6f01ee36_1aa9abae,          !- Zone or ZoneList or Space or SpaceList Name
  WeeklySchedule_44a7830f,                !- Number of People Schedule Name
  People/Area,                            !- Number of People Calculation Method
  ,                                       !- Number of People
  0.0906955659899564,                     !- People per Floor Area {person/m2}
  ,                                       !- Floor Area per Person {m2/person}
  0.3,                                    !- Fraction Radiant
  ,                                       !- Sensible Heat Fraction
  Seated Adult Activity;                  !- Activity Level Schedule Name

ScheduleTypeLimits,
  Activity Level,                         !- Name
  0,                                      !- Lower Limit Value {BasedOnField A3}
  ,                                       !- Upper Limit Value {BasedOnField A3}
  Continuous,                             !- Numeric Type
  activitylevel;                          !- Unit Type

Schedule:Day:Interval,
  Seated Adult Activity_Day Schedule,     !- Name
  Activity Level,                         !- Schedule Type Limits Name
  No,                                     !- Interpolate to Timestep
  24:00,                                  !- Time 1 {hh:mm}
  120;                                    !- Value Until Time 1

Schedule:Week:Daily,
  Seated Adult Activity Week Rule - Jan1-Dec31, !- Name
  Seated Adult Activity_Day Schedule,     !- Sunday Schedule:Day Name
  Seated Adult Activity_Day Schedule,     !- Monday Schedule:Day Name
  Seated Adult Activity_Day Schedule,     !- Tuesday Schedule:Day Name
  Seated Adult Activity_Day Schedule,     !- Wednesday Schedule:Day Name
  Seated Adult Activity_Day Schedule,     !- Thursday Schedule:Day Name
  Seated Adult Activity_Day Schedule,     !- Friday Schedule:Day Name
  Seated Adult Activity_Day Schedule,     !- Saturday Schedule:Day Name
  Seated Adult Activity_Day Schedule,     !- Holiday Schedule:Day Name
  Seated Adult Activity_Day Schedule,     !- SummerDesignDay Schedule:Day Name
  Seated Adult Activity_Day Schedule,     !- WinterDesignDay Schedule:Day Name
  Seated Adult Activity_Day Schedule,     !- CustomDay1 Schedule:Day Name
  Seated Adult Activity_Day Schedule;     !- CustomDay2 Schedule:Day Name

Schedule:Year,
  Seated Adult Activity,                  !- Name
  Activity Level,                         !- Schedule Type Limits Name
  Seated Adult Activity Week Rule - Jan1-Dec31, !- Schedule:Week Name 1
  1,                                      !- Start Month 1
  1,                                      !- Start Day 1
  12,                                     !- End Month 1
  31;                                     !- End Day 1

ElectricEquipment,
  Equipment_548fb418,                     !- Name
  ProgramType_6f01ee36_1aa9abae,          !- Zone or ZoneList or Space or SpaceList Name
  WeeklySchedule_44a7830f,                !- Schedule Name
  Watts/Area,                             !- Design Level Calculation Method
  ,                                       !- Design Level {W}
  5.5406862,                              !- Watts per Zone Floor Area {W/m2}
  ,                                       !- Watts per Person {W/person}
  0,                                      !- Fraction Latent
  0,                                      !- Fraction Radiant
  0,                                      !- Fraction Lost
  Electric Equipment;                     !- End-Use Subcategory

Shading:Zone:Detailed,
  Aperture_1b7eccbc_OutBorder0,           !- Name
  Face_8fd830a5,                          !- Base Surface Name
  ,                                       !- Transmittance Schedule Name
  ,                                       !- Number of Vertices
  25.0642981553671, -7.36041528771921, 6.44347144178782, !- X,Y,Z Vertex 1 {m}
  25.0153496726789, -7.65639509453468, 6.44347144178782, !- X,Y,Z Vertex 2 {m}
  26.4621652158758, -7.89566623377618, 6.44347144178783, !- X,Y,Z Vertex 3 {m}
  26.511113698564, -7.59968642696071, 6.44347144178783; !- X,Y,Z Vertex 4 {m}

ShadingProperty:Reflectance,
  Aperture_1b7eccbc_OutBorder0,           !- Shading Surface Name
  0.35,                                   !- Diffuse Solar Reflectance of Unglazed Part of Shading Surface
  0.35,                                   !- Diffuse Visible Reflectance of Unglazed Part of Shading Surface
  0;                                      !- Fraction of Shading Surface That Is Glazed

Shading:Zone:Detailed,
  Aperture_1b7eccbc_OutBorder1,           !- Name
  Face_348d4290,                          !- Base Surface Name
  ,                                       !- Transmittance Schedule Name
  ,                                       !- Number of Vertices
  25.0642981553671, -7.36041528771921, 6.44347144178782, !- X,Y,Z Vertex 1 {m}
  25.0642981553671, -7.36041528771921, 4.95564695828783, !- X,Y,Z Vertex 2 {m}
  25.0153496726789, -7.65639509453468, 4.95564695828783, !- X,Y,Z Vertex 3 {m}
  25.0153496726789, -7.65639509453468, 6.44347144178782; !- X,Y,Z Vertex 4 {m}

ShadingProperty:Reflectance,
  Aperture_1b7eccbc_OutBorder1,           !- Shading Surface Name
  0.35,                                   !- Diffuse Solar Reflectance of Unglazed Part of Shading Surface
  0.35,                                   !- Diffuse Visible Reflectance of Unglazed Part of Shading Surface
  0;                                      !- Fraction of Shading Surface That Is Glazed

Shading:Zone:Detailed,
  Aperture_1b7eccbc_OutBorder2,           !- Name
  Face_348d4290,                          !- Base Surface Name
  ,                                       !- Transmittance Schedule Name
  ,                                       !- Number of Vertices
  26.511113698564, -7.59968642696071, 4.95564695828783, !- X,Y,Z Vertex 1 {m}
  26.4621652158758, -7.89566623377618, 4.95564695828783, !- X,Y,Z Vertex 2 {m}
  25.0153496726789, -7.65639509453468, 4.95564695828783, !- X,Y,Z Vertex 3 {m}
  25.0642981553671, -7.36041528771921, 4.95564695828783; !- X,Y,Z Vertex 4 {m}

ShadingProperty:Reflectance,
  Aperture_1b7eccbc_OutBorder2,           !- Shading Surface Name
  0.35,                                   !- Diffuse Solar Reflectance of Unglazed Part of Shading Surface
  0.35,                                   !- Diffuse Visible Reflectance of Unglazed Part of Shading Surface
  0;                                      !- Fraction of Shading Surface That Is Glazed

Shading:Zone:Detailed,
  Aperture_1b7eccbc_OutBorder3,           !- Name
  Face_348d4290,                          !- Base Surface Name
  ,                                       !- Transmittance Schedule Name